[root]
type=Root
children=system
eventq_index=0
full_system=false
sim_quantum=0
time_sync_enable=false
time_sync_period=200000000
time_sync_spin_threshold=200000

[system]
type=System
children=clk_domain cpu0 cpu1 cpu_clk_domain cpu_voltage_domain dvfs_handler mem_ctrls0 mem_ctrls1 mem_ctrls2 mem_ctrls3 ruby sys_port_proxy voltage_domain
boot_osflags=a
cache_line_size=64
clk_domain=system.clk_domain
default_p_state=UNDEFINED
eventq_index=0
exit_on_work_items=false
init_param=0
kernel=
kernel_addr_check=true
kernel_extras=
load_addr_mask=18446744073709551615
load_offset=0
mem_mode=timing
mem_ranges=0:4294967295:0:0:0:0
memories=system.mem_ctrls0 system.mem_ctrls1 system.mem_ctrls2 system.mem_ctrls3
mmap_using_noreserve=false
multi_thread=false
num_work_ids=16
p_state_clk_gate_bins=20
p_state_clk_gate_max=2000000000
p_state_clk_gate_min=2
power_model=
readfile=
symbolfile=
thermal_components=
thermal_model=Null
work_begin_ckpt_count=0
work_begin_cpu_id_exit=-1
work_begin_exit_count=0
work_cpus_ckpt_count=0
work_end_ckpt_count=0
work_end_exit_count=0
work_item_id=-1
system_port=system.sys_port_proxy.slave[0]

[system.clk_domain]
type=SrcClockDomain
clock=2
domain_id=-1
eventq_index=0
init_perf_level=0
voltage_domain=system.voltage_domain

[system.cpu0]
type=TimingSimpleCPU
children=dtb interrupts isa itb tracer workload
branchPred=Null
checker=Null
clk_domain=system.cpu_clk_domain
cpu_id=0
default_p_state=UNDEFINED
do_checkpoint_insts=true
do_quiesce=true
do_statistics_insts=true
dtb=system.cpu0.dtb
eventq_index=0
function_trace=false
function_trace_start=0
interrupts=system.cpu0.interrupts
isa=system.cpu0.isa
itb=system.cpu0.itb
max_insts_all_threads=0
max_insts_any_thread=0
max_loads_all_threads=0
max_loads_any_thread=0
numThreads=1
p_state_clk_gate_bins=20
p_state_clk_gate_max=2000000000
p_state_clk_gate_min=2
power_gating_on_idle=false
power_model=
profile=0
progress_interval=0
pwr_gating_latency=300
simpoint_start_insts=
socket_id=0
switched_out=false
syscallRetryLatency=10000
system=system
tracer=system.cpu0.tracer
wait_for_remote_gdb=false
workload=system.cpu0.workload
dcache_port=system.ruby.l1_cntrl0.sequencer.slave[1]
icache_port=system.ruby.l1_cntrl0.sequencer.slave[0]

[system.cpu0.dtb]
type=RiscvTLB
clk_domain=system.cpu_clk_domain
default_p_state=UNDEFINED
eventq_index=0
p_state_clk_gate_bins=20
p_state_clk_gate_max=2000000000
p_state_clk_gate_min=2
power_model=
size=64

[system.cpu0.interrupts]
type=RiscvInterrupts
eventq_index=0

[system.cpu0.isa]
type=RiscvISA
eventq_index=0

[system.cpu0.itb]
type=RiscvTLB
clk_domain=system.cpu_clk_domain
default_p_state=UNDEFINED
eventq_index=0
p_state_clk_gate_bins=20
p_state_clk_gate_max=2000000000
p_state_clk_gate_min=2
power_model=
size=64

[system.cpu0.tracer]
type=ExeTracer
eventq_index=0

[system.cpu0.workload]
type=Process
cmd=tests/test-progs/hello/bin/riscv/linux/hello
cwd=/home/iain/GEM5/gem5_chips-master
drivers=
egid=100
env=
errout=cerr
euid=100
eventq_index=0
executable=tests/test-progs/hello/bin/riscv/linux/hello
gid=100
input=cin
kvmInSE=false
maxStackSize=67108864
output=cout
pgid=100
pid=100
ppid=0
simpoint=0
system=system
uid=100
useArchPT=false

[system.cpu1]
type=TimingSimpleCPU
children=dtb interrupts isa itb tracer
branchPred=Null
checker=Null
clk_domain=system.cpu_clk_domain
cpu_id=1
default_p_state=UNDEFINED
do_checkpoint_insts=true
do_quiesce=true
do_statistics_insts=true
dtb=system.cpu1.dtb
eventq_index=0
function_trace=false
function_trace_start=0
interrupts=system.cpu1.interrupts
isa=system.cpu1.isa
itb=system.cpu1.itb
max_insts_all_threads=0
max_insts_any_thread=0
max_loads_all_threads=0
max_loads_any_thread=0
numThreads=1
p_state_clk_gate_bins=20
p_state_clk_gate_max=2000000000
p_state_clk_gate_min=2
power_gating_on_idle=false
power_model=
profile=0
progress_interval=0
pwr_gating_latency=300
simpoint_start_insts=
socket_id=0
switched_out=false
syscallRetryLatency=10000
system=system
tracer=system.cpu1.tracer
wait_for_remote_gdb=false
workload=system.cpu0.workload
dcache_port=system.ruby.l1_cntrl1.sequencer.slave[1]
icache_port=system.ruby.l1_cntrl1.sequencer.slave[0]

[system.cpu1.dtb]
type=RiscvTLB
clk_domain=system.cpu_clk_domain
default_p_state=UNDEFINED
eventq_index=0
p_state_clk_gate_bins=20
p_state_clk_gate_max=2000000000
p_state_clk_gate_min=2
power_model=
size=64

[system.cpu1.interrupts]
type=RiscvInterrupts
eventq_index=0

[system.cpu1.isa]
type=RiscvISA
eventq_index=0

[system.cpu1.itb]
type=RiscvTLB
clk_domain=system.cpu_clk_domain
default_p_state=UNDEFINED
eventq_index=0
p_state_clk_gate_bins=20
p_state_clk_gate_max=2000000000
p_state_clk_gate_min=2
power_model=
size=64

[system.cpu1.tracer]
type=ExeTracer
eventq_index=0

[system.cpu_clk_domain]
type=SrcClockDomain
clock=1
domain_id=-1
eventq_index=0
init_perf_level=0
voltage_domain=system.cpu_voltage_domain

[system.cpu_voltage_domain]
type=VoltageDomain
eventq_index=0
voltage=1.0

[system.dvfs_handler]
type=DVFSHandler
domains=
enable=false
eventq_index=0
sys_clk_domain=system.clk_domain
transition_latency=200000

[system.mem_ctrls0]
type=DRAMCtrl
IDD0=0.055
IDD02=0.0
IDD2N=0.032
IDD2N2=0.0
IDD2P0=0.0
IDD2P02=0.0
IDD2P1=0.032
IDD2P12=0.0
IDD3N=0.038
IDD3N2=0.0
IDD3P0=0.0
IDD3P02=0.0
IDD3P1=0.038
IDD3P12=0.0
IDD4R=0.157
IDD4R2=0.0
IDD4W=0.125
IDD4W2=0.0
IDD5=0.235
IDD52=0.0
IDD6=0.02
IDD62=0.0
VDD=1.5
VDD2=0.0
activation_limit=4
addr_mapping=RoRaBaCoCh
bank_groups_per_rank=0
banks_per_rank=8
burst_length=8
channels=4
clk_domain=system.clk_domain
conf_table_reported=true
default_p_state=UNDEFINED
device_bus_width=8
device_rowbuffer_size=1024
device_size=536870912
devices_per_rank=8
dll=true
eventq_index=0
in_addr_map=true
kvm_map=true
max_accesses_per_row=16
mem_sched_policy=frfcfs
min_writes_per_switch=16
null=false
p_state_clk_gate_bins=20
p_state_clk_gate_max=2000000000
p_state_clk_gate_min=2
page_policy=open_adaptive
power_model=
qos_masters=               
qos_policy=Null
qos_priorities=1
qos_priority_escalation=false
qos_q_policy=fifo
qos_syncro_scheduler=false
qos_turnaround_policy=Null
range=0:4294967295:7:21:2:0
ranks_per_channel=2
read_buffer_size=32
static_backend_latency=20
static_frontend_latency=20
tBURST=10
tCCD_L=0
tCCD_L_WR=0
tCK=3
tCL=28
tCS=5
tRAS=70
tRCD=28
tREFI=15600
tRFC=520
tRP=28
tRRD=12
tRRD_L=0
tRTP=15
tRTW=5
tWR=30
tWTR=15
tXAW=60
tXP=12
tXPDLL=0
tXS=540
tXSDLL=0
write_buffer_size=64
write_high_thresh_perc=85
write_low_thresh_perc=50
port=system.ruby.dir_cntrl0.memory

[system.mem_ctrls1]
type=DRAMCtrl
IDD0=0.055
IDD02=0.0
IDD2N=0.032
IDD2N2=0.0
IDD2P0=0.0
IDD2P02=0.0
IDD2P1=0.032
IDD2P12=0.0
IDD3N=0.038
IDD3N2=0.0
IDD3P0=0.0
IDD3P02=0.0
IDD3P1=0.038
IDD3P12=0.0
IDD4R=0.157
IDD4R2=0.0
IDD4W=0.125
IDD4W2=0.0
IDD5=0.235
IDD52=0.0
IDD6=0.02
IDD62=0.0
VDD=1.5
VDD2=0.0
activation_limit=4
addr_mapping=RoRaBaCoCh
bank_groups_per_rank=0
banks_per_rank=8
burst_length=8
channels=4
clk_domain=system.clk_domain
conf_table_reported=true
default_p_state=UNDEFINED
device_bus_width=8
device_rowbuffer_size=1024
device_size=536870912
devices_per_rank=8
dll=true
eventq_index=0
in_addr_map=true
kvm_map=true
max_accesses_per_row=16
mem_sched_policy=frfcfs
min_writes_per_switch=16
null=false
p_state_clk_gate_bins=20
p_state_clk_gate_max=2000000000
p_state_clk_gate_min=2
page_policy=open_adaptive
power_model=
qos_masters=               
qos_policy=Null
qos_priorities=1
qos_priority_escalation=false
qos_q_policy=fifo
qos_syncro_scheduler=false
qos_turnaround_policy=Null
range=0:4294967295:7:21:2:1
ranks_per_channel=2
read_buffer_size=32
static_backend_latency=20
static_frontend_latency=20
tBURST=10
tCCD_L=0
tCCD_L_WR=0
tCK=3
tCL=28
tCS=5
tRAS=70
tRCD=28
tREFI=15600
tRFC=520
tRP=28
tRRD=12
tRRD_L=0
tRTP=15
tRTW=5
tWR=30
tWTR=15
tXAW=60
tXP=12
tXPDLL=0
tXS=540
tXSDLL=0
write_buffer_size=64
write_high_thresh_perc=85
write_low_thresh_perc=50
port=system.ruby.dir_cntrl1.memory

[system.mem_ctrls2]
type=DRAMCtrl
IDD0=0.055
IDD02=0.0
IDD2N=0.032
IDD2N2=0.0
IDD2P0=0.0
IDD2P02=0.0
IDD2P1=0.032
IDD2P12=0.0
IDD3N=0.038
IDD3N2=0.0
IDD3P0=0.0
IDD3P02=0.0
IDD3P1=0.038
IDD3P12=0.0
IDD4R=0.157
IDD4R2=0.0
IDD4W=0.125
IDD4W2=0.0
IDD5=0.235
IDD52=0.0
IDD6=0.02
IDD62=0.0
VDD=1.5
VDD2=0.0
activation_limit=4
addr_mapping=RoRaBaCoCh
bank_groups_per_rank=0
banks_per_rank=8
burst_length=8
channels=4
clk_domain=system.clk_domain
conf_table_reported=true
default_p_state=UNDEFINED
device_bus_width=8
device_rowbuffer_size=1024
device_size=536870912
devices_per_rank=8
dll=true
eventq_index=0
in_addr_map=true
kvm_map=true
max_accesses_per_row=16
mem_sched_policy=frfcfs
min_writes_per_switch=16
null=false
p_state_clk_gate_bins=20
p_state_clk_gate_max=2000000000
p_state_clk_gate_min=2
page_policy=open_adaptive
power_model=
qos_masters=               
qos_policy=Null
qos_priorities=1
qos_priority_escalation=false
qos_q_policy=fifo
qos_syncro_scheduler=false
qos_turnaround_policy=Null
range=0:4294967295:7:21:2:2
ranks_per_channel=2
read_buffer_size=32
static_backend_latency=20
static_frontend_latency=20
tBURST=10
tCCD_L=0
tCCD_L_WR=0
tCK=3
tCL=28
tCS=5
tRAS=70
tRCD=28
tREFI=15600
tRFC=520
tRP=28
tRRD=12
tRRD_L=0
tRTP=15
tRTW=5
tWR=30
tWTR=15
tXAW=60
tXP=12
tXPDLL=0
tXS=540
tXSDLL=0
write_buffer_size=64
write_high_thresh_perc=85
write_low_thresh_perc=50
port=system.ruby.dir_cntrl2.memory

[system.mem_ctrls3]
type=DRAMCtrl
IDD0=0.055
IDD02=0.0
IDD2N=0.032
IDD2N2=0.0
IDD2P0=0.0
IDD2P02=0.0
IDD2P1=0.032
IDD2P12=0.0
IDD3N=0.038
IDD3N2=0.0
IDD3P0=0.0
IDD3P02=0.0
IDD3P1=0.038
IDD3P12=0.0
IDD4R=0.157
IDD4R2=0.0
IDD4W=0.125
IDD4W2=0.0
IDD5=0.235
IDD52=0.0
IDD6=0.02
IDD62=0.0
VDD=1.5
VDD2=0.0
activation_limit=4
addr_mapping=RoRaBaCoCh
bank_groups_per_rank=0
banks_per_rank=8
burst_length=8
channels=4
clk_domain=system.clk_domain
conf_table_reported=true
default_p_state=UNDEFINED
device_bus_width=8
device_rowbuffer_size=1024
device_size=536870912
devices_per_rank=8
dll=true
eventq_index=0
in_addr_map=true
kvm_map=true
max_accesses_per_row=16
mem_sched_policy=frfcfs
min_writes_per_switch=16
null=false
p_state_clk_gate_bins=20
p_state_clk_gate_max=2000000000
p_state_clk_gate_min=2
page_policy=open_adaptive
power_model=
qos_masters=               
qos_policy=Null
qos_priorities=1
qos_priority_escalation=false
qos_q_policy=fifo
qos_syncro_scheduler=false
qos_turnaround_policy=Null
range=0:4294967295:7:21:2:3
ranks_per_channel=2
read_buffer_size=32
static_backend_latency=20
static_frontend_latency=20
tBURST=10
tCCD_L=0
tCCD_L_WR=0
tCK=3
tCL=28
tCS=5
tRAS=70
tRCD=28
tREFI=15600
tRFC=520
tRP=28
tRRD=12
tRRD_L=0
tRTP=15
tRTW=5
tWR=30
tWTR=15
tXAW=60
tXP=12
tXPDLL=0
tXS=540
tXSDLL=0
write_buffer_size=64
write_high_thresh_perc=85
write_low_thresh_perc=50
port=system.ruby.dir_cntrl3.memory

[system.ruby]
type=RubySystem
children=clk_domain dir_cntrl0 dir_cntrl1 dir_cntrl2 dir_cntrl3 l1_cntrl0 l1_cntrl1 l2_cntrl0 l2_cntrl1 memctrl_clk_domain network
access_backing_store=false
all_instructions=false
block_size_bytes=64
clk_domain=system.ruby.clk_domain
default_p_state=UNDEFINED
eventq_index=0
hot_lines=false
memory_size_bits=48
num_of_sequencers=2
number_of_virtual_networks=3
p_state_clk_gate_bins=20
p_state_clk_gate_max=2000000000
p_state_clk_gate_min=2
phys_mem=Null
power_model=
randomization=false

[system.ruby.clk_domain]
type=SrcClockDomain
clock=1
domain_id=-1
eventq_index=0
init_perf_level=0
voltage_domain=system.voltage_domain

[system.ruby.dir_cntrl0]
type=Directory_Controller
children=directory requestToDir responseFromDir responseFromMemory responseToDir
addr_ranges=0:4294967295:7:21:2:0
buffer_size=0
clk_domain=system.ruby.clk_domain
cluster_id=0
default_p_state=UNDEFINED
directory=system.ruby.dir_cntrl0.directory
directory_latency=6
eventq_index=0
number_of_TBEs=256
p_state_clk_gate_bins=20
p_state_clk_gate_max=2000000000
p_state_clk_gate_min=2
power_model=
recycle_latency=10
requestToDir=system.ruby.dir_cntrl0.requestToDir
responseFromDir=system.ruby.dir_cntrl0.responseFromDir
responseFromMemory=system.ruby.dir_cntrl0.responseFromMemory
responseToDir=system.ruby.dir_cntrl0.responseToDir
ruby_system=system.ruby
system=system
to_mem_ctrl_latency=1
transitions_per_cycle=32
version=0
memory=system.mem_ctrls0.port

[system.ruby.dir_cntrl0.directory]
type=RubyDirectoryMemory
addr_ranges=0:4294967295:7:21:2:0
eventq_index=0

[system.ruby.dir_cntrl0.requestToDir]
type=MessageBuffer
buffer_size=0
eventq_index=0
ordered=false
randomization=false
slave=system.ruby.network.master[10]

[system.ruby.dir_cntrl0.responseFromDir]
type=MessageBuffer
buffer_size=0
eventq_index=0
ordered=false
randomization=false
master=system.ruby.network.slave[12]

[system.ruby.dir_cntrl0.responseFromMemory]
type=MessageBuffer
buffer_size=0
eventq_index=0
ordered=false
randomization=false

[system.ruby.dir_cntrl0.responseToDir]
type=MessageBuffer
buffer_size=0
eventq_index=0
ordered=false
randomization=false
slave=system.ruby.network.master[11]

[system.ruby.dir_cntrl1]
type=Directory_Controller
children=directory requestToDir responseFromDir responseFromMemory responseToDir
addr_ranges=0:4294967295:7:21:2:1
buffer_size=0
clk_domain=system.ruby.clk_domain
cluster_id=0
default_p_state=UNDEFINED
directory=system.ruby.dir_cntrl1.directory
directory_latency=6
eventq_index=0
number_of_TBEs=256
p_state_clk_gate_bins=20
p_state_clk_gate_max=2000000000
p_state_clk_gate_min=2
power_model=
recycle_latency=10
requestToDir=system.ruby.dir_cntrl1.requestToDir
responseFromDir=system.ruby.dir_cntrl1.responseFromDir
responseFromMemory=system.ruby.dir_cntrl1.responseFromMemory
responseToDir=system.ruby.dir_cntrl1.responseToDir
ruby_system=system.ruby
system=system
to_mem_ctrl_latency=1
transitions_per_cycle=32
version=1
memory=system.mem_ctrls1.port

[system.ruby.dir_cntrl1.directory]
type=RubyDirectoryMemory
addr_ranges=0:4294967295:7:21:2:1
eventq_index=0

[system.ruby.dir_cntrl1.requestToDir]
type=MessageBuffer
buffer_size=0
eventq_index=0
ordered=false
randomization=false
slave=system.ruby.network.master[12]

[system.ruby.dir_cntrl1.responseFromDir]
type=MessageBuffer
buffer_size=0
eventq_index=0
ordered=false
randomization=false
master=system.ruby.network.slave[13]

[system.ruby.dir_cntrl1.responseFromMemory]
type=MessageBuffer
buffer_size=0
eventq_index=0
ordered=false
randomization=false

[system.ruby.dir_cntrl1.responseToDir]
type=MessageBuffer
buffer_size=0
eventq_index=0
ordered=false
randomization=false
slave=system.ruby.network.master[13]

[system.ruby.dir_cntrl2]
type=Directory_Controller
children=directory requestToDir responseFromDir responseFromMemory responseToDir
addr_ranges=0:4294967295:7:21:2:2
buffer_size=0
clk_domain=system.ruby.clk_domain
cluster_id=0
default_p_state=UNDEFINED
directory=system.ruby.dir_cntrl2.directory
directory_latency=6
eventq_index=0
number_of_TBEs=256
p_state_clk_gate_bins=20
p_state_clk_gate_max=2000000000
p_state_clk_gate_min=2
power_model=
recycle_latency=10
requestToDir=system.ruby.dir_cntrl2.requestToDir
responseFromDir=system.ruby.dir_cntrl2.responseFromDir
responseFromMemory=system.ruby.dir_cntrl2.responseFromMemory
responseToDir=system.ruby.dir_cntrl2.responseToDir
ruby_system=system.ruby
system=system
to_mem_ctrl_latency=1
transitions_per_cycle=32
version=2
memory=system.mem_ctrls2.port

[system.ruby.dir_cntrl2.directory]
type=RubyDirectoryMemory
addr_ranges=0:4294967295:7:21:2:2
eventq_index=0

[system.ruby.dir_cntrl2.requestToDir]
type=MessageBuffer
buffer_size=0
eventq_index=0
ordered=false
randomization=false
slave=system.ruby.network.master[14]

[system.ruby.dir_cntrl2.responseFromDir]
type=MessageBuffer
buffer_size=0
eventq_index=0
ordered=false
randomization=false
master=system.ruby.network.slave[14]

[system.ruby.dir_cntrl2.responseFromMemory]
type=MessageBuffer
buffer_size=0
eventq_index=0
ordered=false
randomization=false

[system.ruby.dir_cntrl2.responseToDir]
type=MessageBuffer
buffer_size=0
eventq_index=0
ordered=false
randomization=false
slave=system.ruby.network.master[15]

[system.ruby.dir_cntrl3]
type=Directory_Controller
children=directory requestToDir responseFromDir responseFromMemory responseToDir
addr_ranges=0:4294967295:7:21:2:3
buffer_size=0
clk_domain=system.ruby.clk_domain
cluster_id=0
default_p_state=UNDEFINED
directory=system.ruby.dir_cntrl3.directory
directory_latency=6
eventq_index=0
number_of_TBEs=256
p_state_clk_gate_bins=20
p_state_clk_gate_max=2000000000
p_state_clk_gate_min=2
power_model=
recycle_latency=10
requestToDir=system.ruby.dir_cntrl3.requestToDir
responseFromDir=system.ruby.dir_cntrl3.responseFromDir
responseFromMemory=system.ruby.dir_cntrl3.responseFromMemory
responseToDir=system.ruby.dir_cntrl3.responseToDir
ruby_system=system.ruby
system=system
to_mem_ctrl_latency=1
transitions_per_cycle=32
version=3
memory=system.mem_ctrls3.port

[system.ruby.dir_cntrl3.directory]
type=RubyDirectoryMemory
addr_ranges=0:4294967295:7:21:2:3
eventq_index=0

[system.ruby.dir_cntrl3.requestToDir]
type=MessageBuffer
buffer_size=0
eventq_index=0
ordered=false
randomization=false
slave=system.ruby.network.master[16]

[system.ruby.dir_cntrl3.responseFromDir]
type=MessageBuffer
buffer_size=0
eventq_index=0
ordered=false
randomization=false
master=system.ruby.network.slave[15]

[system.ruby.dir_cntrl3.responseFromMemory]
type=MessageBuffer
buffer_size=0
eventq_index=0
ordered=false
randomization=false

[system.ruby.dir_cntrl3.responseToDir]
type=MessageBuffer
buffer_size=0
eventq_index=0
ordered=false
randomization=false
slave=system.ruby.network.master[17]

[system.ruby.l1_cntrl0]
type=L1Cache_Controller
children=L1Dcache L1Icache mandatoryQueue optionalQueue prefetcher requestFromL1Cache requestToL1Cache responseFromL1Cache responseToL1Cache sequencer triggerQueue unblockFromL1Cache
L1Dcache=system.ruby.l1_cntrl0.L1Dcache
L1Icache=system.ruby.l1_cntrl0.L1Icache
addr_ranges=0:18446744073709551615:0:0:0:0
buffer_size=0
clk_domain=system.cpu_clk_domain
cluster_id=0
default_p_state=UNDEFINED
enable_prefetch=false
eventq_index=0
l1_request_latency=2
l1_response_latency=2
l2_select_num_bits=1
llsc_locked_duration=128
mandatoryQueue=system.ruby.l1_cntrl0.mandatoryQueue
number_of_TBEs=256
optionalQueue=system.ruby.l1_cntrl0.optionalQueue
p_state_clk_gate_bins=20
p_state_clk_gate_max=2000000000
p_state_clk_gate_min=2
power_model=
prefetcher=system.ruby.l1_cntrl0.prefetcher
recycle_latency=10
requestFromL1Cache=system.ruby.l1_cntrl0.requestFromL1Cache
requestToL1Cache=system.ruby.l1_cntrl0.requestToL1Cache
responseFromL1Cache=system.ruby.l1_cntrl0.responseFromL1Cache
responseToL1Cache=system.ruby.l1_cntrl0.responseToL1Cache
ruby_system=system.ruby
send_evictions=false
sequencer=system.ruby.l1_cntrl0.sequencer
system=system
to_l2_latency=1
transitions_per_cycle=4
triggerQueue=system.ruby.l1_cntrl0.triggerQueue
unblockFromL1Cache=system.ruby.l1_cntrl0.unblockFromL1Cache
version=0

[system.ruby.l1_cntrl0.L1Dcache]
type=RubyCache
children=replacement_policy
assoc=2
block_size=0
dataAccessLatency=1
dataArrayBanks=1
eventq_index=0
is_icache=false
replacement_policy=system.ruby.l1_cntrl0.L1Dcache.replacement_policy
resourceStalls=false
ruby_system=system.ruby
size=16384
start_index_bit=6
tagAccessLatency=1
tagArrayBanks=1

[system.ruby.l1_cntrl0.L1Dcache.replacement_policy]
type=PseudoLRUReplacementPolicy
assoc=2
block_size=64
eventq_index=0
size=16384

[system.ruby.l1_cntrl0.L1Icache]
type=RubyCache
children=replacement_policy
assoc=2
block_size=0
dataAccessLatency=1
dataArrayBanks=1
eventq_index=0
is_icache=true
replacement_policy=system.ruby.l1_cntrl0.L1Icache.replacement_policy
resourceStalls=false
ruby_system=system.ruby
size=16384
start_index_bit=6
tagAccessLatency=1
tagArrayBanks=1

[system.ruby.l1_cntrl0.L1Icache.replacement_policy]
type=PseudoLRUReplacementPolicy
assoc=2
block_size=64
eventq_index=0
size=16384

[system.ruby.l1_cntrl0.mandatoryQueue]
type=MessageBuffer
buffer_size=0
eventq_index=0
ordered=false
randomization=false

[system.ruby.l1_cntrl0.optionalQueue]
type=MessageBuffer
buffer_size=0
eventq_index=0
ordered=false
randomization=false

[system.ruby.l1_cntrl0.prefetcher]
type=Prefetcher
cross_page=false
eventq_index=0
nonunit_filter=8
num_startup_pfs=1
num_streams=4
pf_per_stream=1
sys=system
train_misses=4
unit_filter=8

[system.ruby.l1_cntrl0.requestFromL1Cache]
type=MessageBuffer
buffer_size=0
eventq_index=0
ordered=false
randomization=false
master=system.ruby.network.slave[0]

[system.ruby.l1_cntrl0.requestToL1Cache]
type=MessageBuffer
buffer_size=0
eventq_index=0
ordered=false
randomization=false
slave=system.ruby.network.master[0]

[system.ruby.l1_cntrl0.responseFromL1Cache]
type=MessageBuffer
buffer_size=0
eventq_index=0
ordered=false
randomization=false
master=system.ruby.network.slave[1]

[system.ruby.l1_cntrl0.responseToL1Cache]
type=MessageBuffer
buffer_size=0
eventq_index=0
ordered=false
randomization=false
slave=system.ruby.network.master[1]

[system.ruby.l1_cntrl0.sequencer]
type=RubySequencer
clk_domain=system.cpu_clk_domain
coreid=99
dcache=system.ruby.l1_cntrl0.L1Dcache
dcache_hit_latency=1
deadlock_threshold=500000
default_p_state=UNDEFINED
eventq_index=0
garnet_standalone=false
icache=system.ruby.l1_cntrl0.L1Icache
icache_hit_latency=1
is_cpu_sequencer=true
max_outstanding_requests=16
no_retry_on_stall=false
p_state_clk_gate_bins=20
p_state_clk_gate_max=2000000000
p_state_clk_gate_min=2
power_model=
ruby_system=system.ruby
support_data_reqs=true
support_inst_reqs=true
system=system
using_ruby_tester=false
version=0
slave=system.cpu0.icache_port system.cpu0.dcache_port

[system.ruby.l1_cntrl0.triggerQueue]
type=MessageBuffer
buffer_size=0
eventq_index=0
ordered=false
randomization=false

[system.ruby.l1_cntrl0.unblockFromL1Cache]
type=MessageBuffer
buffer_size=0
eventq_index=0
ordered=false
randomization=false
master=system.ruby.network.slave[2]

[system.ruby.l1_cntrl1]
type=L1Cache_Controller
children=L1Dcache L1Icache mandatoryQueue optionalQueue prefetcher requestFromL1Cache requestToL1Cache responseFromL1Cache responseToL1Cache sequencer triggerQueue unblockFromL1Cache
L1Dcache=system.ruby.l1_cntrl1.L1Dcache
L1Icache=system.ruby.l1_cntrl1.L1Icache
addr_ranges=0:18446744073709551615:0:0:0:0
buffer_size=0
clk_domain=system.cpu_clk_domain
cluster_id=0
default_p_state=UNDEFINED
enable_prefetch=false
eventq_index=0
l1_request_latency=2
l1_response_latency=2
l2_select_num_bits=1
llsc_locked_duration=128
mandatoryQueue=system.ruby.l1_cntrl1.mandatoryQueue
number_of_TBEs=256
optionalQueue=system.ruby.l1_cntrl1.optionalQueue
p_state_clk_gate_bins=20
p_state_clk_gate_max=2000000000
p_state_clk_gate_min=2
power_model=
prefetcher=system.ruby.l1_cntrl1.prefetcher
recycle_latency=10
requestFromL1Cache=system.ruby.l1_cntrl1.requestFromL1Cache
requestToL1Cache=system.ruby.l1_cntrl1.requestToL1Cache
responseFromL1Cache=system.ruby.l1_cntrl1.responseFromL1Cache
responseToL1Cache=system.ruby.l1_cntrl1.responseToL1Cache
ruby_system=system.ruby
send_evictions=false
sequencer=system.ruby.l1_cntrl1.sequencer
system=system
to_l2_latency=1
transitions_per_cycle=4
triggerQueue=system.ruby.l1_cntrl1.triggerQueue
unblockFromL1Cache=system.ruby.l1_cntrl1.unblockFromL1Cache
version=1

[system.ruby.l1_cntrl1.L1Dcache]
type=RubyCache
children=replacement_policy
assoc=2
block_size=0
dataAccessLatency=1
dataArrayBanks=1
eventq_index=0
is_icache=false
replacement_policy=system.ruby.l1_cntrl1.L1Dcache.replacement_policy
resourceStalls=false
ruby_system=system.ruby
size=16384
start_index_bit=6
tagAccessLatency=1
tagArrayBanks=1

[system.ruby.l1_cntrl1.L1Dcache.replacement_policy]
type=PseudoLRUReplacementPolicy
assoc=2
block_size=64
eventq_index=0
size=16384

[system.ruby.l1_cntrl1.L1Icache]
type=RubyCache
children=replacement_policy
assoc=2
block_size=0
dataAccessLatency=1
dataArrayBanks=1
eventq_index=0
is_icache=true
replacement_policy=system.ruby.l1_cntrl1.L1Icache.replacement_policy
resourceStalls=false
ruby_system=system.ruby
size=16384
start_index_bit=6
tagAccessLatency=1
tagArrayBanks=1

[system.ruby.l1_cntrl1.L1Icache.replacement_policy]
type=PseudoLRUReplacementPolicy
assoc=2
block_size=64
eventq_index=0
size=16384

[system.ruby.l1_cntrl1.mandatoryQueue]
type=MessageBuffer
buffer_size=0
eventq_index=0
ordered=false
randomization=false

[system.ruby.l1_cntrl1.optionalQueue]
type=MessageBuffer
buffer_size=0
eventq_index=0
ordered=false
randomization=false

[system.ruby.l1_cntrl1.prefetcher]
type=Prefetcher
cross_page=false
eventq_index=0
nonunit_filter=8
num_startup_pfs=1
num_streams=4
pf_per_stream=1
sys=system
train_misses=4
unit_filter=8

[system.ruby.l1_cntrl1.requestFromL1Cache]
type=MessageBuffer
buffer_size=0
eventq_index=0
ordered=false
randomization=false
master=system.ruby.network.slave[3]

[system.ruby.l1_cntrl1.requestToL1Cache]
type=MessageBuffer
buffer_size=0
eventq_index=0
ordered=false
randomization=false
slave=system.ruby.network.master[2]

[system.ruby.l1_cntrl1.responseFromL1Cache]
type=MessageBuffer
buffer_size=0
eventq_index=0
ordered=false
randomization=false
master=system.ruby.network.slave[4]

[system.ruby.l1_cntrl1.responseToL1Cache]
type=MessageBuffer
buffer_size=0
eventq_index=0
ordered=false
randomization=false
slave=system.ruby.network.master[3]

[system.ruby.l1_cntrl1.sequencer]
type=RubySequencer
clk_domain=system.cpu_clk_domain
coreid=99
dcache=system.ruby.l1_cntrl1.L1Dcache
dcache_hit_latency=1
deadlock_threshold=500000
default_p_state=UNDEFINED
eventq_index=0
garnet_standalone=false
icache=system.ruby.l1_cntrl1.L1Icache
icache_hit_latency=1
is_cpu_sequencer=true
max_outstanding_requests=16
no_retry_on_stall=false
p_state_clk_gate_bins=20
p_state_clk_gate_max=2000000000
p_state_clk_gate_min=2
power_model=
ruby_system=system.ruby
support_data_reqs=true
support_inst_reqs=true
system=system
using_ruby_tester=false
version=1
slave=system.cpu1.icache_port system.cpu1.dcache_port

[system.ruby.l1_cntrl1.triggerQueue]
type=MessageBuffer
buffer_size=0
eventq_index=0
ordered=false
randomization=false

[system.ruby.l1_cntrl1.unblockFromL1Cache]
type=MessageBuffer
buffer_size=0
eventq_index=0
ordered=false
randomization=false
master=system.ruby.network.slave[5]

[system.ruby.l2_cntrl0]
type=L2Cache_Controller
children=DirRequestFromL2Cache L1RequestFromL2Cache L1RequestToL2Cache L2cache responseFromL2Cache responseToL2Cache unblockToL2Cache
DirRequestFromL2Cache=system.ruby.l2_cntrl0.DirRequestFromL2Cache
L1RequestFromL2Cache=system.ruby.l2_cntrl0.L1RequestFromL2Cache
L1RequestToL2Cache=system.ruby.l2_cntrl0.L1RequestToL2Cache
L2cache=system.ruby.l2_cntrl0.L2cache
addr_ranges=0:18446744073709551615:0:0:0:0
buffer_size=0
clk_domain=system.ruby.clk_domain
cluster_id=0
default_p_state=UNDEFINED
eventq_index=0
l2_request_latency=2
l2_response_latency=2
number_of_TBEs=256
p_state_clk_gate_bins=20
p_state_clk_gate_max=2000000000
p_state_clk_gate_min=2
power_model=
recycle_latency=10
responseFromL2Cache=system.ruby.l2_cntrl0.responseFromL2Cache
responseToL2Cache=system.ruby.l2_cntrl0.responseToL2Cache
ruby_system=system.ruby
system=system
to_l1_latency=1
transitions_per_cycle=4
unblockToL2Cache=system.ruby.l2_cntrl0.unblockToL2Cache
version=0

[system.ruby.l2_cntrl0.DirRequestFromL2Cache]
type=MessageBuffer
buffer_size=0
eventq_index=0
ordered=false
randomization=false
master=system.ruby.network.slave[6]

[system.ruby.l2_cntrl0.L1RequestFromL2Cache]
type=MessageBuffer
buffer_size=0
eventq_index=0
ordered=false
randomization=false
master=system.ruby.network.slave[7]

[system.ruby.l2_cntrl0.L1RequestToL2Cache]
type=MessageBuffer
buffer_size=0
eventq_index=0
ordered=false
randomization=false
slave=system.ruby.network.master[5]

[system.ruby.l2_cntrl0.L2cache]
type=RubyCache
children=replacement_policy
assoc=8
block_size=0
dataAccessLatency=1
dataArrayBanks=1
eventq_index=0
is_icache=false
replacement_policy=system.ruby.l2_cntrl0.L2cache.replacement_policy
resourceStalls=false
ruby_system=system.ruby
size=131072
start_index_bit=7
tagAccessLatency=1
tagArrayBanks=1

[system.ruby.l2_cntrl0.L2cache.replacement_policy]
type=PseudoLRUReplacementPolicy
assoc=8
block_size=64
eventq_index=0
size=131072

[system.ruby.l2_cntrl0.responseFromL2Cache]
type=MessageBuffer
buffer_size=0
eventq_index=0
ordered=false
randomization=false
master=system.ruby.network.slave[8]

[system.ruby.l2_cntrl0.responseToL2Cache]
type=MessageBuffer
buffer_size=0
eventq_index=0
ordered=false
randomization=false
slave=system.ruby.network.master[6]

[system.ruby.l2_cntrl0.unblockToL2Cache]
type=MessageBuffer
buffer_size=0
eventq_index=0
ordered=false
randomization=false
slave=system.ruby.network.master[4]

[system.ruby.l2_cntrl1]
type=L2Cache_Controller
children=DirRequestFromL2Cache L1RequestFromL2Cache L1RequestToL2Cache L2cache responseFromL2Cache responseToL2Cache unblockToL2Cache
DirRequestFromL2Cache=system.ruby.l2_cntrl1.DirRequestFromL2Cache
L1RequestFromL2Cache=system.ruby.l2_cntrl1.L1RequestFromL2Cache
L1RequestToL2Cache=system.ruby.l2_cntrl1.L1RequestToL2Cache
L2cache=system.ruby.l2_cntrl1.L2cache
addr_ranges=0:18446744073709551615:0:0:0:0
buffer_size=0
clk_domain=system.ruby.clk_domain
cluster_id=0
default_p_state=UNDEFINED
eventq_index=0
l2_request_latency=2
l2_response_latency=2
number_of_TBEs=256
p_state_clk_gate_bins=20
p_state_clk_gate_max=2000000000
p_state_clk_gate_min=2
power_model=
recycle_latency=10
responseFromL2Cache=system.ruby.l2_cntrl1.responseFromL2Cache
responseToL2Cache=system.ruby.l2_cntrl1.responseToL2Cache
ruby_system=system.ruby
system=system
to_l1_latency=1
transitions_per_cycle=4
unblockToL2Cache=system.ruby.l2_cntrl1.unblockToL2Cache
version=1

[system.ruby.l2_cntrl1.DirRequestFromL2Cache]
type=MessageBuffer
buffer_size=0
eventq_index=0
ordered=false
randomization=false
master=system.ruby.network.slave[9]

[system.ruby.l2_cntrl1.L1RequestFromL2Cache]
type=MessageBuffer
buffer_size=0
eventq_index=0
ordered=false
randomization=false
master=system.ruby.network.slave[10]

[system.ruby.l2_cntrl1.L1RequestToL2Cache]
type=MessageBuffer
buffer_size=0
eventq_index=0
ordered=false
randomization=false
slave=system.ruby.network.master[8]

[system.ruby.l2_cntrl1.L2cache]
type=RubyCache